22

C        -5.11866        3.37149        0.38742
N        -5.33560        4.71032        0.44082
C        -4.23187        5.51508        0.39666
N        -3.93467        2.78103        0.29089
H        -5.98404        2.71954        0.42894
C        -2.89100        3.54584        0.24649
N        -1.61486        3.13538        0.15269
C        -2.96710        4.93077        0.29692
H        -4.36154        6.58821        0.44320
N        -1.68782        5.36242        0.23296
C        -0.88057        4.28091        0.15805
H         0.20275        4.32989        0.10910
H        -0.84869        1.63942        0.10204
O        -0.42358        0.74961       -0.07444
H         0.18370        1.03355       -0.78045
H        -3.82398        1.76479        0.26935
O        -4.13126        0.28836        0.42079
H        -1.29384       -0.37965        0.78030
H        -4.55878       -0.52979        0.09386
O        -1.94844       -0.89006        1.33091
H        -1.33918       -1.25605        1.99699
H        -3.34416       -0.15427        0.85423