19

C        -5.01984        3.25732        0.26860
N        -5.22839        4.59181        0.26874
C        -4.13916        5.40298        0.29654
N        -3.84370        2.58834        0.29547
H        -5.91590        2.64320        0.24386
C        -2.81180        3.45438        0.32033
N        -1.47672        3.16085        0.34463
C        -2.86821        4.84032        0.32356
H        -4.31111        6.47120        0.29481
N        -1.60682        5.38518        0.35290
C        -0.79465        4.34845        0.36405
H         0.28657        4.38753        0.38438
H        -1.06676        2.22989        0.33983
O        -0.58794        0.52174        0.23170
H        -0.04106       -0.25240        0.01561
H        -3.49630        0.74509        0.30278
O        -3.18303       -0.18181        0.40960
H        -1.47988        0.09853        0.30118
H        -3.96444       -0.60633        0.80218