19

C        -4.98983        3.18813        0.26429
N        -5.23516        4.46846        0.26853
C        -4.11673        5.30154        0.29630
N        -3.74153        2.62888        0.28051
H        -5.80795        2.44975        0.24592
C        -2.64294        3.42587        0.30816
N        -1.36414        3.18946        0.33320
C        -2.84641        4.87876        0.31594
H        -4.32519        6.36698        0.30428
N        -1.62977        5.48417        0.34774
C        -0.81003        4.47105        0.35751
H         0.28394        4.60016        0.38383
H        -0.83448        1.38557        0.27753
O        -0.73691        0.40616        0.23951
H         0.21680        0.31445        0.07490
H        -3.63828        1.61046        0.31017
O        -3.37541       -0.04224        0.46049
H        -2.39001       -0.08344        0.36256
H        -3.56509       -0.95791        0.72937