13

C        -4.67137        2.88063       -0.05953
N        -5.04669        4.08716        0.25829
C        -4.02077        4.99437        0.52800
N        -3.37170        2.45921       -0.14346
H        -5.41091        2.09619       -0.28875
C        -2.36540        3.33256        0.11701
N        -1.07454        3.22012        0.11820
C        -2.71371        4.70842        0.48110
H        -4.33826        5.99839        0.79324
N        -1.56262        5.39912        0.69630
C        -0.64605        4.49728        0.47477
H         0.43039        4.71604        0.56101
H        -3.13953        1.50979       -0.39266