41

O               -0.260971725854     0.083683512679    -0.419090038548
O                1.109745726812    -1.830907544801    -1.934470028407
N                3.248525445634     0.246661452925     0.285763829017
C                1.761003158679    -0.657665217844    -1.471382622109
C                2.498056567742    -0.920835334197    -0.150977911653
C                3.996546989854     0.086587121631     1.539744218585
C                0.718404171415     0.445716473888    -1.385273074994
C                4.999801246272     1.234426495862     1.669120511512
C                3.055193508211     0.041811342082     2.747452990783
C               -1.434526813859     0.766170742032    -0.348766012961
C               -2.439475772811     0.175515494987     0.455265763755
C               -2.181274039072    -1.148611861328     1.152954690317
C               -1.670720659737     1.981558124216    -1.008025555954
C               -3.667599378813     0.833981598139     0.568136055139
C               -2.912834916782     2.615898001736    -0.874957378168
C               -3.915262262305     2.047902717009    -0.087942588035
C               -2.129440167719    -2.329826662312     0.209901224464
C               -2.984664975856    -3.357809849682     0.226193691597
H                2.503736702860    -0.310168427944    -2.218819178994
H                1.753751307169    -1.193737055115     0.611642574157
H                3.143068972784    -1.817430940154    -0.297792539957
H                4.573730456195    -0.866654765404     1.526946937911
H                3.913190147689     0.492932466703    -0.449343215954
H                1.209947500212     1.391132786483    -1.103470332923
H                0.243843453713     0.570121787477    -2.373542130258
H                5.680538895890     1.264759318086     0.801766099888
H                5.613155707689     1.118122602291     2.576128968679
H                4.476914090228     2.203419472653     1.726796458192
H                2.367450850297    -0.816889492206     2.703737165382
H                2.450572002412     0.963314754628     2.792558608234
H                3.631757560530    -0.043547712736     3.681924246291
H                1.776921504269    -2.520207268465    -2.066683304866
H               -2.963272206663    -1.314568342498     1.909869042376
H               -1.215197271042    -1.084986425146     1.684893987027
H               -0.892968843142     2.437595594783    -1.620885205231
H               -4.449275121973     0.380824315456     1.184877708720
H               -3.086844180057     3.562633813785    -1.392934957079
H               -4.884676631345     2.540317179812     0.018407354681
H               -1.315948587944    -2.312247199473    -0.524888260306
H               -2.892904856428    -4.187845799204    -0.481363997472
H               -3.807897546987    -3.409847269166     0.947726197585
