26

O                0.698970099531     1.263682222412    -1.240416395697
O               -0.681856225812    -1.314204225832    -1.200121942319
O                1.898968546391    -1.255518320845     1.174375839553
O               -1.861858192662     1.303025834270     1.127325417899
O                4.335751035389    -0.347924295470     0.215794881882
O               -4.364983209967     0.375575582110    -0.005519285782
C                0.639797026643     0.422971019263    -0.093862923974
C               -0.638375618551    -0.431411837736    -0.085359185296
C                1.920116843405    -0.422748823871     0.015906311106
C               -1.909440369440     0.438781576834     0.003829657765
C                3.170630253795     0.443119406155     0.127788884299
C               -3.185677535725    -0.405156295541    -0.012789257511
H                0.585789097915     1.095017451471     0.776511883097
H               -0.599593424490    -1.073530742574     0.811197384861
H                2.003200784858    -1.047498560726    -0.892611868773
H               -1.917625662640     1.103933990371    -0.879966265252
H                3.059533458467     1.105773567171     1.012060015822
H                3.254775530334     1.086331959729    -0.759580861274
H               -3.212558464990    -1.027830177892     0.899712996901
H               -3.147418405406    -1.093493118581    -0.875456958885
H                0.876900044465     0.709257642047    -2.016213894797
H               -0.854193062598    -0.791176130949    -1.998584219771
H                1.581968421225    -2.132649213963     0.920500360069
H               -1.960069397684     0.762869959511     1.927022982751
H                4.145126569685    -1.020222285134     0.890151945415
H               -4.369978144247     0.908523817565    -0.814095501841
