30

Cl              -2.096590236768    -3.816329139425     1.082076223899
O               -1.648133985358     3.992347963641    -0.899619326820
N               -1.894913430698     1.743161083850    -1.051100394921
N                0.529814429178     1.921197397506     0.641596628416
C               -0.780580146475    -0.102725730784     0.163070744263
C                0.483554579827     0.671119934813     0.342909262747
C               -1.886737394094     0.435195169287    -0.540598133785
C                1.788731320930    -0.036958813594     0.146766734615
C               -0.868163702237    -1.420562626965     0.656028757757
C               -0.701793623665     2.646765838090     0.881854658385
C               -3.012801620534    -0.375381080500    -0.783353670934
C               -1.451422332122     2.886826481878    -0.425353219058
C               -2.006489225321    -2.187370359178     0.435786316724
C               -3.078868723912    -1.678917576415    -0.307656011795
C                1.928895356511    -1.094576698919    -0.770516151377
C                2.925732583465     0.397709331779     0.854757275828
C                3.172842376397    -1.699573633816    -0.974981903164
C                4.164505361245    -0.213259683398     0.657483877891
C                4.293027578783    -1.264423104283    -0.259611188588
H               -0.030289082977    -1.848185504467     1.206902947103
H               -2.501160808228     1.917214442698    -1.852008783003
H               -0.476054192010     3.632533672935     1.308173190339
H               -1.376305745765     2.109773694780     1.578053252287
H               -3.851813223329     0.039350131032    -1.346583140972
H               -3.958997954893    -2.294738456879    -0.498698425454
H                1.066304682146    -1.437673918299    -1.344822716206
H                2.820376764656     1.220865820314     1.563627550545
H                3.266125622027    -2.512918765327    -1.699009591543
H                5.034779260433     0.128821758452     1.223504640116
H                5.263325520760    -1.742887634675    -0.414579407098
