42

O               -0.080265592971    -0.936981821548    -0.815157901922
O               -1.550478831623    -0.423834909166    -3.222675118905
O                1.859991633995     0.558918101641     0.037083825020
N               -3.096514425799     0.445618467760     0.045785400891
C               -2.427534325801     0.649866284162    -1.229866878210
C               -2.163684992996    -0.670742262334    -1.966238908072
C               -3.218092813959     1.642888178923     0.889224682661
C               -1.267505858932    -1.622679224756    -1.189822126271
C               -1.888912480133     1.965499098555     1.581117997898
C               -4.332315207613     1.425244000861     1.913641011259
C                0.843324136538    -1.563108903000    -0.045403640066
C                1.914830352648    -0.745835397262     0.415381717531
C                0.810196985437    -2.916101191494     0.302860579294
C                2.918177791090    -1.310091094076     1.207400860475
C                1.827592271791    -3.471228528134     1.097953202537
C                2.875921075971    -2.673774383733     1.545750656269
C                2.910431846814     1.440680388264     0.433439352607
C                2.651637291300     2.783690096344    -0.179175068248
C                2.589315102998     3.925083751570     0.512657412696
H               -1.453413599815     1.131547681134    -1.064031824863
H               -2.999694845346     1.314559076026    -1.916385590296
H               -3.127597214694    -1.204307182987    -2.101292313733
H               -3.499625272198     2.524348421293     0.269067848491
H               -4.031738514356     0.078474466788    -0.135192423914
H               -1.025157056723    -2.489837615145    -1.829389982831
H               -1.799150941241    -1.980154419348    -0.293116089809
H               -1.968136535753     2.903339326907     2.154274837365
H               -1.612723054760     1.155850492155     2.276969505419
H               -1.064588486802     2.084990017698     0.861322657854
H               -5.299873020215     1.244264986188     1.416733603072
H               -4.445151192556     2.307386770546     2.562579913666
H               -4.107356218756     0.554317683399     2.552391481791
H               -2.138738416184     0.147369915505    -3.737286030324
H               -0.005901761314    -3.549082715534    -0.046866479217
H                3.739367246208    -0.693587063372     1.573112657540
H                1.784898633261    -4.531653043932     1.358136316949
H                3.671576845716    -3.095696156322     2.164468458291
H                3.878158044603     1.039716958430     0.074893755791
H                2.961500627105     1.510744447419     1.534883439187
H                2.536362418643     2.791267323460    -1.270134012186
H                2.435448258011     4.886697085712     0.014851632423
H                2.698820052367     3.938832912714     1.602751568715
